Version 4
SHEET 1 1300 776
WIRE 688 -112 656 -112
WIRE 896 -96 752 -96
WIRE 688 -80 656 -80
WIRE 688 -48 656 -48
WIRE 688 0 656 0
WIRE 848 16 752 16
WIRE 688 32 656 32
WIRE 688 64 656 64
WIRE 896 64 896 -96
WIRE 976 64 896 64
WIRE 848 80 848 16
WIRE 976 80 848 80
WIRE 1152 80 1040 80
WIRE 976 112 848 112
WIRE 976 128 896 128
WIRE 688 144 656 144
WIRE 848 160 848 112
WIRE 848 160 752 160
WIRE 688 176 656 176
WIRE 688 208 656 208
WIRE 688 256 656 256
WIRE 896 272 896 128
WIRE 896 272 752 272
WIRE 688 288 656 288
WIRE 688 320 656 320
WIRE -256 336 -256 304
WIRE -240 336 -256 336
WIRE -112 336 -112 304
WIRE -96 336 -112 336
WIRE 32 336 32 304
WIRE 48 336 32 336
WIRE 176 336 176 304
WIRE 192 336 176 336
WIRE 1104 384 992 384
WIRE 1104 656 992 656
FLAG -224 160 0
FLAG -80 160 0
FLAG 64 160 0
FLAG 208 160 0
FLAG -224 80 A
FLAG -80 80 B
FLAG 64 80 C
FLAG 208 80 D
FLAG 1152 80 X
FLAG 1104 384 Y
FLAG 1104 656 Z
FLAG 176 304 D
FLAG 32 304 C
FLAG -112 304 B
FLAG -256 304 A
FLAG -176 336 ~A
FLAG -32 336 ~B
FLAG 112 336 ~C
FLAG 256 336 ~D
FLAG 656 -112 ~A
FLAG 656 -80 ~B
FLAG 656 -48 ~D
FLAG 656 32 ~B
FLAG 656 144 ~A
FLAG 656 256 ~A
FLAG 656 320 ~D
FLAG 656 288 B
FLAG 656 176 B
FLAG 656 208 C
FLAG 656 64 C
FLAG 656 0 A
SYMBOL voltage -224 64 R0
WINDOW 123 0 0 Left 0
WINDOW 39 0 0 Left 0
SYMATTR InstName V1
SYMATTR Value 0
SYMBOL voltage -80 64 R0
SYMATTR InstName V2
SYMATTR Value 0
SYMBOL voltage 64 64 R0
WINDOW 123 0 0 Left 0
WINDOW 39 0 0 Left 0
SYMATTR InstName V3
SYMATTR Value 0
SYMBOL voltage 208 64 R0
SYMATTR InstName V4
SYMATTR Value 0
SYMBOL Digital\\or 1008 32 R0
SYMATTR InstName A1
SYMBOL Digital\\or 960 336 R0
SYMATTR InstName A2
SYMBOL Digital\\or 960 608 R0
SYMATTR InstName A3
SYMBOL Digital\\and 720 -144 R0
SYMATTR InstName A4
SYMBOL Digital\\and 720 -32 R0
SYMATTR InstName A5
SYMBOL Digital\\and 720 112 R0
SYMATTR InstName A6
SYMBOL Digital\\and 720 224 R0
SYMATTR InstName A7
SYMBOL Digital\\inv -240 272 R0
SYMATTR InstName A8
SYMBOL Digital\\inv -96 272 R0
SYMATTR InstName A9
SYMBOL Digital\\inv 48 272 R0
SYMATTR InstName A10
SYMBOL Digital\\inv 192 272 R0
SYMATTR InstName A11
